Version 4
SHEET 1 3220 5356
WIRE 1696 -208 1584 -208
WIRE 1584 -192 1584 -208
WIRE 752 -128 336 -128
WIRE 816 -128 752 -128
WIRE 1536 -128 992 -128
WIRE 1584 -128 1536 -128
WIRE 752 -96 752 -128
WIRE 816 -96 752 -96
WIRE 1056 -96 992 -96
WIRE 1136 -96 1056 -96
WIRE 1184 -96 1136 -96
WIRE 1328 -96 1248 -96
WIRE 640 -64 624 -64
WIRE 768 -64 704 -64
WIRE 816 -64 768 -64
WIRE 1136 -64 1136 -96
WIRE 1136 -64 992 -64
WIRE 624 -48 624 -64
WIRE 816 -32 784 -32
WIRE 1328 -32 1328 -96
WIRE 1328 -32 992 -32
WIRE 336 -16 336 -128
WIRE 816 0 784 0
WIRE 1024 0 992 0
WIRE 1328 16 1328 -32
WIRE 816 32 784 32
WIRE 1024 32 992 32
WIRE 1584 32 1584 -128
WIRE 336 80 336 64
WIRE 1184 128 1040 128
WIRE 1280 128 1184 128
WIRE 1328 128 1328 96
WIRE 1328 128 1280 128
WIRE 1392 128 1328 128
WIRE 1456 128 1392 128
WIRE 1456 160 1456 128
WIRE 1584 208 1584 112
WIRE 1696 208 1696 -208
WIRE 1696 208 1584 208
WIRE 496 224 496 208
WIRE 1456 256 1456 240
WIRE 1584 256 1584 208
WIRE 1584 256 1456 256
WIRE 496 320 496 304
WIRE 1280 320 1184 320
WIRE 1456 320 1456 256
WIRE 1456 320 1280 320
WIRE 288 368 288 352
WIRE 288 464 288 448
FLAG 1392 128 Vout
FLAG 784 -32 HSin
FLAG 784 0 LSin
FLAG 752 -128 Vdd5
FLAG 1536 -128 Vin
FLAG 1056 -96 Vboot
FLAG 1328 -32 SW
FLAG 768 -64 Vdd_int
FLAG 1024 32 0
FLAG 1024 0 0
FLAG 784 32 0
FLAG 496 208 LSin
FLAG 496 320 0
FLAG 288 352 HSin
FLAG 288 464 0
FLAG 1584 256 0
FLAG 624 -48 0
FLAG 336 80 0
SYMBOL voltage 288 352 R0
WINDOW 123 0 0 Left 0
WINDOW 39 0 0 Left 0
SYMATTR InstName VHSin
SYMATTR Value PULSE(0 3.3 8n 1n 1n 2000.0n 4000.0n)
SYMBOL voltage 496 208 R0
WINDOW 123 0 0 Left 0
WINDOW 39 0 0 Left 0
SYMATTR InstName VLSin
SYMATTR Value PULSE(3.3 0 0n 1n 1n 2016.0n 4000.0n)
SYMBOL cap 1248 -112 R90
WINDOW 0 0 32 VBottom 2
WINDOW 3 32 32 VTop 2
SYMATTR InstName C2
SYMATTR Value 100n
SYMBOL voltage 336 -32 R0
WINDOW 123 0 0 Left 0
WINDOW 39 0 0 Left 0
SYMATTR InstName VVdd5
SYMATTR Value 5
SYMBOL voltage 1584 16 R0
WINDOW 123 0 0 Left 0
WINDOW 39 0 0 Left 0
SYMATTR InstName VS
SYMATTR Value 10
SYMBOL EPC23102_model 896 -48 R0
SYMATTR InstName U1
SYMBOL cap 704 -80 R90
WINDOW 0 0 32 VBottom 2
WINDOW 3 32 32 VTop 2
SYMATTR InstName C3
SYMATTR Value 100n
SYMBOL cap 1568 -192 R0
SYMATTR InstName C4
SYMATTR Value 10µ
SYMBOL GRM_Mine 1184 224 R90
SYMATTR SpiceModel C1
SYMATTR InstName U6
SYMBOL GRM_Mine 1280 224 R90
SYMATTR SpiceModel C2
SYMATTR InstName U3
SYMBOL XAL1010_Mine 1328 16 R90
SYMATTR SpiceModel Inductor
SYMATTR InstName U4
SYMBOL res 1440 144 R0
SYMATTR InstName R1
SYMATTR Value 5
TEXT 512 -272 Left 2 !.tran 0 3m 2.5m 2u uic
TEXT 512 -320 Left 2 !.include EPC23102_model.net
TEXT 512 -216 Left 2 !.save V(Vin) V(Vout) I(VS)
TEXT 1192 552 Left 2 !*======================================================================\n* SPICE Model generated by Coilcraft\n* Coilcraft Aircore Inductor Model w/Rvar\n*======================================================================\n* Model Parameters:\n*   Valid Frequency Range Varies by Inductor\n*   Ambient Temperature = 25 degC\n*   DC Bias Current = 0 A\n*   Frequency Dependent Inductor Model\n*======================================================================\n.subckt Model3A Lin Lout PARAMS:\n+ R1=1\n+ R2=1\n+ C=1\n+ K1=1\n+ L_Z0=1\n+ L_EL=1\n+ L_F0=1\nG_Rvar1 Lin n001 LAPLACE { V(Lin, n001) } {1/(1e-6+({K1}*((s^2)/(-4*pi^2))^0.25))}\nC1 N002 N001 {C}\nR1 Lout N002 {R1}\nT1 N001 0 N003 0 TD={(L_EL/360)/L_F0} Z0={L_Z0}\nR2 Lout N003 {R2}\n.ends Model3A\n \n*======================================================================\n* SPICE Model generated by Coilcraft\n* Coilcraft Impedance Inductor Model\n*======================================================================\n* Model Parameters:\n*   Valid Frequency Range Varies by Inductor\n*   Ambient Temperature = 25 degC\n*   Time Domain Inductor Impedance Model\n*======================================================================\n.subckt Model1D Lin Lout PARAMS:\n+ R1=1\n+ R2=1\n+ C=1\n+ K3=1\n+ PkZ=1\nR2 Lin N001 {R2}\nR3 N001 Lout {PkZ}\nC1 N001 N002 {C}\nR1 N002 Lout {R1}\nL1 N001 Lout {K3}\n.ends Model1D\n \n*======================================================================\n* SPICE Model generated by Coilcraft\n* Coilcraft Power Inductor Model w/ constant L\n*======================================================================\n* Model Parameters:\n*   Valid Frequency Range Varies by Inductor\n*   Ambient Temperature = 25 degC\n*   DC Bias Current = 0 A\n*   Frequency Dependent Inductor Model\n*======================================================================\n.subckt Model1B Lin Lout PARAMS:\n+ R1=1\n+ R2=1\n+ C=1\n+ K1=1\n+ K2=1\n+ K3=1\nR2 N001 Lin {R2}\nR1 Lout N002 {R1}\nC1 N002 N001 {C}\nG_Rvar2 N001 Lout LAPLACE { V(N001, Lout) } {1/K2/(-S*S/4/PI^2)^0.25}\nG_Rvar1 N001 N003 LAPLACE { V(N001, N003) } {1/K1/(-S*S/4/PI^2)^0.25}\nL1 N003 Lout = {K3}\n*This large resistance to ground has been added to prevent a floating node error\nR3 N003 0 100Meg\n.ends Model1B\n \n*======================================================================\n* SPICE Model generated by Coilcraft\n* Coilcraft Power Inductor Model\n*======================================================================\n* Model Parameters:\n*   Valid Frequency Range Varies by Inductor\n*   Ambient Temperature = 25 degC\n*   DC Bias Current = 0 A\n*   Frequency Dependent Inductor Model\n*======================================================================\n.subckt Model1A Lin Lout PARAMS:\n+ R1=1\n+ R2=1\n+ C=1\n+ K1=1\n+ K2=1\n+ K3=1\n+ K4=1\n+ K5=1\nR2 N001 Lin {R2}\nR1 Lout N002 {R1}\nC1 N002 N001 {C}\nG_Rvar2 N001 Lout LAPLACE { V(N001, Lout) } {1/K2/(-S*S/4/PI^2)^0.25}\nG_Rvar1 N001 N003 LAPLACE { V(N001, N003) } {1/K1/(-S*S/4/PI^2)^0.25}\nG_Lvar N003 Lout  LAPLACE { V(N003, Lout) } {1/(S*1e-6*({K3*1e6}-({K4}*LOG({K5}*(sqrt(-S*S)/(2*pi))))))}\n*This large resistance to ground has been added to prevent a floating node error\nR3 N003 0 100Meg\n.ends Model1A\n \n*======================================================================\n* SPICE Model generated by Coilcraft\n* Coilcraft RF Inductor Model\n*======================================================================\n* Model Parameters:\n*   Valid Frequency Range Varies by Inductor\n*   Ambient Temperature = 25 degC\n*   DC Bias Current = 0 A\n*   Frequency Dependent Inductor Model\n*======================================================================\n.subckt Model2A Lin Lout PARAMS:\n+ R1=1\n+ R2=1\n+ C=1\n+ K1=1\n+ K3=1\nR2 N001 Lin {R2}\nR1 Lout N002 {R1}\nC1 N002 N001 {C}\nG_Rvar1 N001 N003 LAPLACE { V(N001, N003) } {1/K1/(-S*S/4/PI^2)^0.25}\nL1 N003 Lout = {K3}\n.ends Model2A\n \n*======================================================================\n* SPICE Model generated by Coilcraft\n* Coilcraft Saturation Inductor Model\n*======================================================================\n* Model Parameters:\n*   Valid Frequency Range Varies by Inductor\n*   Ambient Temperature = 25 degC\n*   Current Saturable Inductor Model\n*======================================================================\n.subckt Model1C Lin Lout PARAMS:\n+ R1=1\n+ R2=1\n+ C=1\n+ L=1\n+ Is=1\n+ a=1\n+ PkZ=94.2 * {L} *1e6\nR2 Lin N001 {R2}\nR3 N001 Lout {PkZ}\nC1 N001 N002 {C}\nR1 N002 Lout {R1}\nL1 N001 Lout flux={L*Is}*pwrs(tanh(pwrs((x/{Is}),{a})),{1/a})\n.ends Model1C\n \n*======================================================================\n* SPICE Model generated by Coilcraft\n* Coilcraft Aircore Inductor Model\n*======================================================================\n* Model Parameters:\n*   Valid Frequency Range Varies by Inductor\n*   Ambient Temperature = 25 degC\n*   DC Bias Current = 0 A\n*   Frequency Dependent Inductor Model\n*======================================================================\n.subckt Model3B Lin Lout PARAMS:\n+ R1=1\n+ R2=1\n+ C=1\n+ L_Z0=1\n+ L_EL=1\n+ L_F0=1\nC1 N002 Lin {C}\nR1 Lout N002 {R1}\nT1 Lin 0 N003 0 TD={(L_EL/360)/L_F0} Z0={L_Z0}\nR2 Lout N003 {R2}\n.ends Model3B
TEXT -344 616 Left 2 !*======================================================================\n* SPICE Model generated by Coilcraft\n* Coilcraft Part Number : Inductor\n* Inductance = 330uH\n*======================================================================\n* Model Parameters:\n*   Valid Frequency Range = 0.1MHz-8MHz\n*   Ambient Temperature = 25 degC\n*   Inductor Impedance Model\n*   Use model for Time Domain simulations\n*======================================================================\n.subckt Inductor port1 port2 PARAMS: Cpar=22.468pF Ind=330uH\nX1 port1 port2 Model1D PARAMS:\n+ R1=3\n+ R2=0.289\n+ C= {Cpar}\n+ K1=0.00026\n+ K2=58.5\n+ K3= {Ind}\n+ K4=0.16\n+ K5=0.0000099\n+ L=0\n+ Is=0\n+ a=0\n+ L_Z0=0\n+ L_EL=0\n+ L_F0=0E6\n+ PkZ=78110.4172\n.ends Inductor
TEXT -864 -400 Left 2 !*----------------------------------------------------------------------\n* LTspice Model generated by Murata Manufacturing Co., Ltd.\n* Copyright(C) Murata Manufacturing Co., Ltd.\n* Description :3225M(1210)/X7R(-55to125[deg])/2.20e+01[uF]/25[V]\n* Murata P/N :C1\n* Property : C = 2.20e+01[uF]\n* Data Generated on Jan 31, 2023\n*----------------------------------------------------------------------\n* Applicable Conditions:\n*   Frequency Range = 100[Hz]-6[GHz]\n*   Temperature = 25 degC\n*   DC Bias Voltage = 0V\n*   Small Signal Operation\n*----------------------------------------------------------------------\n.SUBCKT C1 Port1 Port2\nC01 Port1 N01 1.68e-05\nR01 Port1 N01 2.27e+06\nL02 N01 N02 2.67e-11 Rser=0.0\nR03 N02 N03 1.62e-03\nC04 N03 N04 5.23e-04\nR04 N03 N04 1.02e+01\nC05 N04 N05 6.12e-04\nR05 N04 N05 9.45e-01\nC06 N05 N06 5.56e-04\nR06 N05 N06 1.07e-01\nC07 N06 N07 4.38e-04\nR07 N06 N07 1.32e-02\nC08 N07 N08 4.53e-04\nR08 N07 N08 1.70e-03\nL09 N08 N09 4.15e-11 Rser=0.0\nR09 N08 N09 2.84e-02\nL10 N09 N10 4.32e-10 Rser=0.0\nR10 N09 N10 1.52e-02\nC11 N10 N11 3.31e-05\nL11 N10 N11 1.50e-10 Rser=0.0\nR11 N10 N11 9.09e-03\nC12 N11 N12 2.15e-05\nL12 N11 N12 9.95e-11 Rser=0.0\nR12 N11 N12 7.13e-03\nC13 N12 Port2 1.54e-12\nL13 N12 Port2 3.52e-10 Rser=0.0\nR13 N12 Port2 6.40e+01\n.ENDS C1
TEXT 2304 -872 Left 2 !*----------------------------------------------------------------------\n* LTspice Model generated by Murata Manufacturing Co., Ltd.\n* Copyright(C) Murata Manufacturing Co., Ltd.\n* Description :3225M(1210)/X7R(-55to125[deg])/2.20e+01[uF]/25[V]\n* Murata P/N :C1\n* Property : C = 2.20e+01[uF]\n* Data Generated on Jan 31, 2023\n*----------------------------------------------------------------------\n* Applicable Conditions:\n*   Frequency Range = 100[Hz]-6[GHz]\n*   Temperature = 25 degC\n*   DC Bias Voltage = 0V\n*   Small Signal Operation\n*----------------------------------------------------------------------\n.SUBCKT C2 Port1 Port2\nC01 Port1 N01 1.68e-05\nR01 Port1 N01 2.27e+06\nL02 N01 N02 2.67e-11 Rser=0.0\nR03 N02 N03 1.62e-03\nC04 N03 N04 5.23e-04\nR04 N03 N04 1.02e+01\nC05 N04 N05 6.12e-04\nR05 N04 N05 9.45e-01\nC06 N05 N06 5.56e-04\nR06 N05 N06 1.07e-01\nC07 N06 N07 4.38e-04\nR07 N06 N07 1.32e-02\nC08 N07 N08 4.53e-04\nR08 N07 N08 1.70e-03\nL09 N08 N09 4.15e-11 Rser=0.0\nR09 N08 N09 2.84e-02\nL10 N09 N10 4.32e-10 Rser=0.0\nR10 N09 N10 1.52e-02\nC11 N10 N11 3.31e-05\nL11 N10 N11 1.50e-10 Rser=0.0\nR11 N10 N11 9.09e-03\nC12 N11 N12 2.15e-05\nL12 N11 N12 9.95e-11 Rser=0.0\nR12 N11 N12 7.13e-03\nC13 N12 Port2 1.54e-12\nL13 N12 Port2 3.52e-10 Rser=0.0\nR13 N12 Port2 6.40e+01\n.ENDS C2
TEXT 472 -408 Left 2 ;.save V(Vin) V(Vout) I(VS) I(IL) I(Inductor) I(C1) I(C2) I(C3) I(C4)
