Version 4
SHEET 1 1808 680
WIRE 1696 -208 1584 -208
WIRE 1584 -192 1584 -208
WIRE 752 -128 336 -128
WIRE 816 -128 752 -128
WIRE 1536 -128 992 -128
WIRE 1584 -128 1536 -128
WIRE 752 -96 752 -128
WIRE 816 -96 752 -96
WIRE 1056 -96 992 -96
WIRE 1136 -96 1056 -96
WIRE 1184 -96 1136 -96
WIRE 1328 -96 1248 -96
WIRE 640 -64 624 -64
WIRE 768 -64 704 -64
WIRE 816 -64 768 -64
WIRE 1136 -64 1136 -96
WIRE 1136 -64 992 -64
WIRE 624 -48 624 -64
WIRE 816 -32 784 -32
WIRE 1328 -32 1328 -96
WIRE 1328 -32 992 -32
WIRE 336 -16 336 -128
WIRE 816 0 784 0
WIRE 1024 0 992 0
WIRE 1328 16 1328 -32
WIRE 816 32 784 32
WIRE 1024 32 992 32
WIRE 1584 32 1584 -128
WIRE 336 80 336 64
WIRE 1328 128 1328 96
WIRE 1392 128 1328 128
WIRE 1456 128 1392 128
WIRE 1328 160 1328 128
WIRE 1456 160 1456 128
WIRE 1584 208 1584 112
WIRE 1696 208 1696 -208
WIRE 1696 208 1584 208
WIRE 496 224 496 208
WIRE 1328 256 1328 224
WIRE 1456 256 1456 224
WIRE 1456 256 1328 256
WIRE 1584 256 1584 208
WIRE 1584 256 1456 256
WIRE 496 320 496 304
WIRE 288 368 288 352
WIRE 288 464 288 448
FLAG 1392 128 VDC
FLAG 784 -32 HSin
FLAG 784 0 LSin
FLAG 752 -128 Vdd5
FLAG 1536 -128 Vin
FLAG 1056 -96 Vboot
FLAG 1328 -32 SW
FLAG 768 -64 Vdd_int
FLAG 1024 32 0
FLAG 1024 0 0
FLAG 784 32 0
FLAG 496 208 LSin
FLAG 496 320 0
FLAG 288 352 HSin
FLAG 288 464 0
FLAG 1584 256 0
FLAG 624 -48 0
FLAG 336 80 0
SYMBOL voltage 288 352 R0
WINDOW 123 0 0 Left 0
WINDOW 39 0 0 Left 0
SYMATTR InstName VHSin
SYMATTR Value PULSE(0 3.3 8n 1n 1n 50.0n 100.0n)
SYMBOL voltage 496 208 R0
WINDOW 123 0 0 Left 0
WINDOW 39 0 0 Left 0
SYMATTR InstName VLSin
SYMATTR Value PULSE(3.3 0 0n 1n 1n 66n 100.0n)
SYMBOL cap 1312 160 R0
SYMATTR InstName C1
SYMATTR Value 47µ
SYMATTR SpiceLine Rser=10m
SYMBOL cap 1248 -112 R90
WINDOW 0 0 32 VBottom 2
WINDOW 3 32 32 VTop 2
SYMATTR InstName C2
SYMATTR Value 100n
SYMBOL voltage 336 -32 R0
WINDOW 123 0 0 Left 0
WINDOW 39 0 0 Left 0
SYMATTR InstName VVdd5
SYMATTR Value 5
SYMBOL voltage 1584 16 R0
WINDOW 123 0 0 Left 0
WINDOW 39 0 0 Left 0
SYMATTR InstName VVin
SYMATTR Value 10
SYMBOL EPC23102_model 896 -48 R0
SYMATTR InstName U1
SYMBOL cap 704 -80 R90
WINDOW 0 0 32 VBottom 2
WINDOW 3 32 32 VTop 2
SYMATTR InstName C3
SYMATTR Value 100n
SYMBOL ind 1312 0 R0
SYMATTR InstName L1
SYMATTR Value 10µ
SYMATTR SpiceLine Ipk=30A Rser=5.5m
SYMBOL load 1440 160 R0
WINDOW 123 0 0 Left 0
WINDOW 39 0 0 Left 0
SYMATTR InstName I1
SYMATTR Value 1
SYMBOL cap 1568 -192 R0
SYMATTR InstName C4
SYMATTR Value 10µ
TEXT 512 -272 Left 2 !.tran 0 3m 2.5m 2u uic
TEXT 512 -224 Left 2 !.temp 25
TEXT 512 -320 Left 2 !.include EPC23102_model.net
